Simulation_Workspace/Phase6/results/line_slg/fault_summary.csv
Fault_location,Fault_branch_sensor,Phase,Fault_enabled,Initial_window_start_s,Initial_window_end_exclusive_s,Initial_samples,Pre_event_current_RMS_A,Initial_current_waveform_RMS_A,Initial_peak_abs_current_A,Initial_phase_voltage_waveform_RMS_V,Full_window_fundamental_current_RMS_A,Fundamental_window_start_s,Fundamental_window_end_exclusive_s,Fundamental_samples,Initial_window_status,Fundamental_window_status
LINE230,faultLINE,A,1,0.15,0.17,100,0.00013264260281578,76473.8502823318,126029.68451369,1565.5658542963,45807.8041397919,0.171,0.21,39,full_initial_cycle_measured,full_post_fault_DFT_windows_measured
LINE230,faultLINE,B,1,0.15,0.17,100,0.000132642596334614,0.000138859229049353,0.00019771849774358,139217.617988033,0.000138619629186496,0.171,0.21,39,full_initial_cycle_measured,full_post_fault_DFT_windows_measured
LINE230,faultLINE,C,1,0.15,0.17,100,0.000132642597541404,0.000140138105867075,0.000199810835445573,139743.293877322,0.000139919972325363,0.171,0.21,39,full_initial_cycle_measured,full_post_fault_DFT_windows_measured
